<?xml version="1.0" encoding="UTF-8"?>

<!-- generated on 2024-06-06 19:06:36.772208 by osmWebWizard.py v1_19_0+0000-baa66a0f364
<configuration>
    <net-file value="C:\Users\matan\Sumo\2024-06-06-19-06-14\osm.net.xml.gz"/>
    <output-trip-file value="C:\Users\matan\Sumo\2024-06-06-19-06-14\osm.passenger.trips.xml"/>
    <route-file value="C:\Users\matan\Sumo\2024-06-06-19-06-14\osm.passenger.rou.xml"/>
    <prefix value="veh"/>
    <trip-attributes value="departLane=&quot;best&quot;"/>
    <fringe-start-attributes value="departSpeed=&quot;max&quot;"/>
    <vehicle-class value="passenger"/>
    <lanes value="True"/>
    <fringe-factor value="13"/>
    <allow-fringe.min-length value="1000.0"/>
    <via-edge-types value="highway.motorway,highway.motorway_link,highway.trunk_link,highway.primary_link,highway.secondary_link,highway.tertiary_link"/>
    <min-distance value="300.0"/>
    <min-distance.fringe value="10.0"/>
    <remove-loops value="True"/>
    <validate value="True"/>
    <insertion-density value="30.0"/>
</configuration>
-->

<!-- generated on 2024-06-06 19:06:34 by Eclipse SUMO duarouter Version 1.19.0
<configuration xmlns:xsi="http://www.w3.org/2001/XMLSchema-instance" xsi:noNamespaceSchemaLocation="http://sumo.dlr.de/xsd/duarouterConfiguration.xsd">

    <input>
        <net-file value="C:\Users\matan\Sumo\2024-06-06-19-06-14\osm.net.xml.gz"/>
        <route-files value="C:\Users\matan\Sumo\2024-06-06-19-06-14\osm.passenger.trips.xml"/>
    </input>

    <output>
        <output-file value="C:\Users\matan\Sumo\2024-06-06-19-06-14\osm.passenger.trips.xml.tmp"/>
        <alternatives-output value="NUL"/>
        <write-trips value="true"/>
    </output>

    <processing>
        <remove-loops value="true"/>
    </processing>

    <time>
        <begin value="0.0"/>
        <end value="3600.0"/>
    </time>

    <report>
        <no-warnings value="true"/>
        <ignore-errors value="true"/>
        <no-step-log value="true"/>
    </report>

</configuration>
-->

<routes xmlns:xsi="http://www.w3.org/2001/XMLSchema-instance" xsi:noNamespaceSchemaLocation="http://sumo.dlr.de/xsd/routes_file.xsd">
    <vType id="veh_passenger" vClass="passenger"/>
    <trip id="veh0" type="veh_passenger" depart="0.00" departLane="best" from="-11633579#1" to="-11630709"/>
    <trip id="veh1" type="veh_passenger" depart="0.62" departLane="best" from="420625415#4" to="-276657007#5"/>
    <trip id="veh2" type="veh_passenger" depart="1.24" departLane="best" from="273386165#2" to="26831855#1"/>
    <trip id="veh3" type="veh_passenger" depart="1.86" departLane="best" from="1032552748#3" to="-11630821#0"/>
    <trip id="veh4" type="veh_passenger" depart="2.49" departLane="best" from="-275407806#0" to="11631536#1"/>
    <trip id="veh5" type="veh_passenger" depart="3.11" departLane="best" from="11630260#5" to="27522557#1"/>
    <trip id="veh6" type="veh_passenger" depart="3.73" departLane="best" from="-11633863#1" to="11632332#10"/>
    <trip id="veh7" type="veh_passenger" depart="4.35" departLane="best" from="-276657007#0" to="11633113"/>
    <trip id="veh8" type="veh_passenger" depart="4.97" departLane="best" departSpeed="max" from="276657008#0" to="-1015371346#3"/>
    <trip id="veh9" type="veh_passenger" depart="5.59" departLane="best" from="276657007#2" to="273386166#2"/>
    <trip id="veh10" type="veh_passenger" depart="6.22" departLane="best" from="60356160#43" to="-132500824#1"/>
    <trip id="veh11" type="veh_passenger" depart="6.84" departLane="best" departSpeed="max" from="654427346#0" to="60428361#10"/>
    <trip id="veh12" type="veh_passenger" depart="7.46" departLane="best" from="-11632562#7" to="-11632995#11"/>
    <trip id="veh13" type="veh_passenger" depart="8.08" departLane="best" departSpeed="max" from="40698206" to="11633511#15"/>
    <trip id="veh14" type="veh_passenger" depart="8.70" departLane="best" from="276657007#7" to="-275370764#4"/>
    <trip id="veh15" type="veh_passenger" depart="9.32" departLane="best" from="11631986#0" to="84629922#2"/>
    <trip id="veh17" type="veh_passenger" depart="10.57" departLane="best" departSpeed="max" from="352858040#0" to="11633693#1"/>
    <trip id="veh18" type="veh_passenger" depart="11.19" departLane="best" from="420625413#2" to="11633002#5"/>
    <trip id="veh19" type="veh_passenger" depart="11.81" departLane="best" from="256661308#21" to="11631258#2"/>
    <trip id="veh20" type="veh_passenger" depart="12.43" departLane="best" departSpeed="max" from="-337409744#1" to="420904896#2"/>
    <trip id="veh21" type="veh_passenger" depart="13.05" departLane="best" from="-11631985#0" to="339831443#3"/>
    <trip id="veh22" type="veh_passenger" depart="13.68" departLane="best" from="11632995#0" to="-420625415#4"/>
    <trip id="veh23" type="veh_passenger" depart="14.30" departLane="best" departSpeed="max" from="11633561#0" to="-798236101#16"/>
    <trip id="veh24" type="veh_passenger" depart="14.92" departLane="best" departSpeed="max" from="-687178729#1" to="-275370764#22"/>
    <trip id="veh25" type="veh_passenger" depart="15.54" departLane="best" from="420334380#2" to="653658852#14"/>
    <trip id="veh26" type="veh_passenger" depart="16.16" departLane="best" from="-11633745#5" to="-11633528#2"/>
    <trip id="veh27" type="veh_passenger" depart="16.78" departLane="best" from="-27054773#5" to="-275370764#26"/>
    <trip id="veh28" type="veh_passenger" depart="17.41" departLane="best" from="-140833663#0" to="-997146442#0"/>
    <trip id="veh29" type="veh_passenger" depart="18.03" departLane="best" from="-84635215#9" to="11633940#4"/>
    <trip id="veh30" type="veh_passenger" depart="18.65" departLane="best" departSpeed="max" from="11632255#0" to="273386165#11"/>
    <trip id="veh31" type="veh_passenger" depart="19.27" departLane="best" from="-337409815#10" to="11630838#4"/>
    <trip id="veh32" type="veh_passenger" depart="19.89" departLane="best" from="582438584#1" to="-420625412#1"/>
    <trip id="veh33" type="veh_passenger" depart="20.51" departLane="best" from="-275405028#6" to="687177032#1"/>
    <trip id="veh34" type="veh_passenger" depart="21.13" departLane="best" from="536922030#10" to="584850201#2"/>
    <trip id="veh35" type="veh_passenger" depart="21.76" departLane="best" from="11633940#2" to="1026428565#3"/>
    <trip id="veh36" type="veh_passenger" depart="22.38" departLane="best" from="584850289#1" to="11630867#4"/>
    <trip id="veh37" type="veh_passenger" depart="23.00" departLane="best" from="-40698216#1" to="-40698203#0"/>
    <trip id="veh38" type="veh_passenger" depart="23.62" departLane="best" from="11632267#6" to="420334380#1"/>
    <trip id="veh39" type="veh_passenger" depart="24.24" departLane="best" from="11632797#1" to="60195270"/>
    <trip id="veh40" type="veh_passenger" depart="24.86" departLane="best" departSpeed="max" from="997146442#0" to="11631612"/>
    <trip id="veh41" type="veh_passenger" depart="25.49" departLane="best" from="-275405028#4" to="11629688#2"/>
    <trip id="veh42" type="veh_passenger" depart="26.11" departLane="best" departSpeed="max" from="-11631449#2" to="-997146442#0"/>
    <trip id="veh43" type="veh_passenger" depart="26.73" departLane="best" from="994858020#1" to="11632014#1"/>
    <trip id="veh44" type="veh_passenger" depart="27.35" departLane="best" from="-798236100#2" to="579670576#4"/>
    <trip id="veh45" type="veh_passenger" depart="27.97" departLane="best" departSpeed="max" from="-1032791406#21" to="-275370739#14"/>
    <trip id="veh46" type="veh_passenger" depart="28.59" departLane="best" departSpeed="max" from="1279388743#0" to="11632099#0"/>
    <trip id="veh47" type="veh_passenger" depart="29.22" departLane="best" from="420334380#2" to="11633940#7"/>
    <trip id="veh48" type="veh_passenger" depart="29.84" departLane="best" departSpeed="max" from="-11633042#1" to="11630411#4"/>
    <trip id="veh49" type="veh_passenger" depart="30.46" departLane="best" from="536447643#2" to="-420334380#4"/>
    <trip id="veh50" type="veh_passenger" depart="31.08" departLane="best" from="-584850258#6" to="584850205#1"/>
    <trip id="veh52" type="veh_passenger" depart="32.32" departLane="best" from="11633149#2" to="-1279388743#0"/>
    <trip id="veh53" type="veh_passenger" depart="32.95" departLane="best" from="-27522549#24" to="11632223#14"/>
    <trip id="veh54" type="veh_passenger" depart="33.57" departLane="best" from="-275370739#6" to="11632014#1"/>
    <trip id="veh55" type="veh_passenger" depart="34.19" departLane="best" from="-1008842399#10" to="-60356160#2"/>
    <trip id="veh56" type="veh_passenger" depart="34.81" departLane="best" departSpeed="max" from="-11629688#2" to="607346543#0"/>
    <trip id="veh57" type="veh_passenger" depart="35.43" departLane="best" from="579670573#0" to="11631955#1"/>
    <trip id="veh58" type="veh_passenger" depart="36.05" departLane="best" from="536922030#18" to="687178729#1"/>
    <trip id="veh59" type="veh_passenger" depart="36.68" departLane="best" departSpeed="max" from="-11632037#1" to="11631398#1"/>
    <trip id="veh60" type="veh_passenger" depart="37.30" departLane="best" departSpeed="max" from="-11631536#1" to="337409719#2"/>
    <trip id="veh61" type="veh_passenger" depart="37.92" departLane="best" from="27522557#4" to="11633712#1"/>
    <trip id="veh62" type="veh_passenger" depart="38.54" departLane="best" from="11630867#2" to="11632407#4"/>
    <trip id="veh63" type="veh_passenger" depart="39.16" departLane="best" from="40698216#1" to="584850251#0"/>
    <trip id="veh64" type="veh_passenger" depart="39.78" departLane="best" from="1032552748#3-AddedOffRampEdge" to="-275405027#0"/>
    <trip id="veh65" type="veh_passenger" depart="40.40" departLane="best" from="11632039#2" to="275370764#7"/>
    <trip id="veh66" type="veh_passenger" depart="41.03" departLane="best" from="275370739#2" to="-582438584#4"/>
    <trip id="veh67" type="veh_passenger" depart="41.65" departLane="best" from="994858019#2" to="11634151#1"/>
    <trip id="veh68" type="veh_passenger" depart="42.27" departLane="best" from="1131310600" to="11631922#1"/>
    <trip id="veh69" type="veh_passenger" depart="42.89" departLane="best" from="-11633309#1" to="-276788582#0"/>
    <trip id="veh70" type="veh_passenger" depart="43.51" departLane="best" from="-60356160#30" to="11633093#2"/>
    <trip id="veh71" type="veh_passenger" depart="44.13" departLane="best" from="-337409815#5" to="276657004#4"/>
    <trip id="veh72" type="veh_passenger" depart="44.76" departLane="best" departSpeed="max" from="-11631536#1" to="11633745#6"/>
    <trip id="veh73" type="veh_passenger" depart="45.38" departLane="best" from="-337409815#1" to="60356160#22"/>
    <trip id="veh74" type="veh_passenger" depart="46.00" departLane="best" from="420625411#0" to="-11632230#0"/>
    <trip id="veh75" type="veh_passenger" depart="46.62" departLane="best" from="-351442964#1" to="-256661308#6"/>
    <trip id="veh76" type="veh_passenger" depart="47.24" departLane="best" from="-275405030#6" to="11633795#0"/>
    <trip id="veh77" type="veh_passenger" depart="47.86" departLane="best" departSpeed="max" from="60356187#0" to="-11632995#0"/>
    <trip id="veh78" type="veh_passenger" depart="48.49" departLane="best" departSpeed="max" from="11630821#0" to="579531384#2"/>
    <trip id="veh79" type="veh_passenger" depart="49.11" departLane="best" from="276657007#9" to="-27522384#3"/>
    <trip id="veh80" type="veh_passenger" depart="49.73" departLane="best" from="11632599#2" to="11630411#13"/>
    <trip id="veh81" type="veh_passenger" depart="50.35" departLane="best" from="1032552748#4" to="11631002#1"/>
    <trip id="veh82" type="veh_passenger" depart="50.97" departLane="best" departSpeed="max" from="273385370" to="26831855#1"/>
    <trip id="veh83" type="veh_passenger" depart="51.59" departLane="best" from="84635194#5" to="-11632995#17"/>
    <trip id="veh84" type="veh_passenger" depart="52.22" departLane="best" from="-84635215#8" to="-60428361#6"/>
    <trip id="veh85" type="veh_passenger" depart="52.84" departLane="best" from="584850205#7" to="-40698203#0"/>
    <trip id="veh86" type="veh_passenger" depart="53.46" departLane="best" from="-27522401#0" to="-11630707"/>
    <trip id="veh87" type="veh_passenger" depart="54.08" departLane="best" from="1032552748#3" to="-420625415#5"/>
    <trip id="veh88" type="veh_passenger" depart="54.70" departLane="best" departSpeed="max" from="-40698203#3" to="60428350"/>
    <trip id="veh89" type="veh_passenger" depart="55.32" departLane="best" from="11630260#6" to="-579670578#0"/>
    <trip id="veh90" type="veh_passenger" depart="55.95" departLane="best" departSpeed="max" from="11632230#0" to="-11631502#0"/>
    <trip id="veh91" type="veh_passenger" depart="56.57" departLane="best" departSpeed="max" from="997146442#0" to="-536931366"/>
    <trip id="veh93" type="veh_passenger" depart="57.81" departLane="best" departSpeed="max" from="40698206" to="-256661308#0"/>
    <trip id="veh94" type="veh_passenger" depart="58.43" departLane="best" departSpeed="max" from="11630952#0" to="275405028#4"/>
    <trip id="veh95" type="veh_passenger" depart="59.05" departLane="best" from="-798236100#1" to="84635215#5"/>
    <trip id="veh96" type="veh_passenger" depart="59.68" departLane="best" departSpeed="max" from="11630709" to="11629688#2"/>
    <trip id="veh97" type="veh_passenger" depart="60.30" departLane="best" departSpeed="max" from="654427346#0" to="961523252"/>
    <trip id="veh98" type="veh_passenger" depart="60.92" departLane="best" from="11632253#1" to="275355146#7"/>
    <trip id="veh99" type="veh_passenger" depart="61.54" departLane="best" from="-11634128#3" to="-536922030#4"/>
    <trip id="veh100" type="veh_passenger" depart="62.16" departLane="best" departSpeed="max" from="11632094#0" to="276657007#0"/>
    <trip id="veh101" type="veh_passenger" depart="62.78" departLane="best" departSpeed="max" from="-11631398#1" to="11633042#1"/>
    <trip id="veh102" type="veh_passenger" depart="63.40" departLane="best" from="11631298#1" to="579531384#3"/>
    <trip id="veh103" type="veh_passenger" depart="64.03" departLane="best" departSpeed="max" from="-11634151#1" to="806289353"/>
    <trip id="veh104" type="veh_passenger" depart="64.65" departLane="best" from="-11631985#2" to="274255423#1"/>
    <trip id="veh105" type="veh_passenger" depart="65.27" departLane="best" from="11633000#8" to="26831855#1"/>
    <trip id="veh106" type="veh_passenger" depart="65.89" departLane="best" departSpeed="max" from="-339831443#4" to="-11633528#0"/>
    <trip id="veh107" type="veh_passenger" depart="66.51" departLane="best" from="11633000#2" to="11633712#0"/>
    <trip id="veh108" type="veh_passenger" depart="67.13" departLane="best" from="1026428565#4" to="11633036#1"/>
    <trip id="veh109" type="veh_passenger" depart="67.76" departLane="best" from="11631610#2" to="653658852#13"/>
    <trip id="veh110" type="veh_passenger" depart="68.38" departLane="best" from="-275370764#12" to="-275355144#3"/>
    <trip id="veh111" type="veh_passenger" depart="69.00" departLane="best" departSpeed="max" from="-352858040#1" to="1026428565#3"/>
    <trip id="veh112" type="veh_passenger" depart="69.62" departLane="best" from="11634218#1" to="-540165368#8"/>
    <trip id="veh113" type="veh_passenger" depart="70.24" departLane="best" from="582438584#4" to="276788582#1"/>
    <trip id="veh114" type="veh_passenger" depart="70.86" departLane="best" departSpeed="max" from="-11631922#1" to="11630867#2"/>
    <trip id="veh115" type="veh_passenger" depart="71.49" departLane="best" departSpeed="max" from="997146442#0" to="961523252"/>
    <trip id="veh116" type="veh_passenger" depart="72.11" departLane="best" departSpeed="max" from="-11631922#1" to="275405028#0"/>
    <trip id="veh117" type="veh_passenger" depart="72.73" departLane="best" from="-40698217#1" to="653658852#0"/>
    <trip id="veh118" type="veh_passenger" depart="73.35" departLane="best" from="536922030#4" to="584850258#6"/>
    <trip id="veh119" type="veh_passenger" depart="73.97" departLane="best" departSpeed="max" from="-687178729#1" to="132500824#11"/>
    <trip id="veh120" type="veh_passenger" depart="74.59" departLane="best" from="-40698197#2" to="274891140#0"/>
    <trip id="veh122" type="veh_passenger" depart="75.84" departLane="best" departSpeed="max" from="11633928#0" to="-1026428564"/>
    <trip id="veh123" type="veh_passenger" depart="76.46" departLane="best" from="-337409821#0" to="540165368#4"/>
    <trip id="veh124" type="veh_passenger" depart="77.08" departLane="best" departSpeed="max" from="11634151#0" to="653658852#4"/>
    <trip id="veh125" type="veh_passenger" depart="77.70" departLane="best" from="-11633712#2" to="-11633511#0"/>
    <trip id="veh126" type="veh_passenger" depart="78.32" departLane="best" from="-11633000#8" to="-11632449#1"/>
    <trip id="veh127" type="veh_passenger" depart="78.95" departLane="best" from="420625412#3" to="11633511#4"/>
    <trip id="veh128" type="veh_passenger" depart="79.57" departLane="best" departSpeed="max" from="26993249" to="-275370739#14"/>
    <trip id="veh129" type="veh_passenger" depart="80.19" departLane="best" departSpeed="max" from="11633561#0" to="-420334380#8"/>
    <trip id="veh130" type="veh_passenger" depart="80.81" departLane="best" from="11630994#1" to="60356160#22"/>
    <trip id="veh131" type="veh_passenger" depart="81.43" departLane="best" from="1032552748#4" to="-420625415#1"/>
    <trip id="veh132" type="veh_passenger" depart="82.05" departLane="best" departSpeed="max" from="-1015369370" to="339831443#4"/>
    <trip id="veh133" type="veh_passenger" depart="82.67" departLane="best" departSpeed="max" from="11633561#0" to="40698217#3"/>
    <trip id="veh134" type="veh_passenger" depart="83.30" departLane="best" from="273386165#4" to="11632407#4"/>
    <trip id="veh135" type="veh_passenger" depart="83.92" departLane="best" from="1032842615#1" to="1032791406#17"/>
    <trip id="veh136" type="veh_passenger" depart="84.54" departLane="best" departSpeed="max" from="-11631922#1" to="586490825#3"/>
    <trip id="veh137" type="veh_passenger" depart="85.16" departLane="best" from="582438584#4" to="11632332#10"/>
    <trip id="veh138" type="veh_passenger" depart="85.78" departLane="best" departSpeed="max" from="40698201#0" to="11633027#2"/>
    <trip id="veh139" type="veh_passenger" depart="86.40" departLane="best" from="11634052#2" to="579670577"/>
    <trip id="veh140" type="veh_passenger" depart="87.03" departLane="best" from="579670573#4" to="60195270"/>
    <trip id="veh141" type="veh_passenger" depart="87.65" departLane="best" from="275405030#4" to="579670576#4"/>
    <trip id="veh142" type="veh_passenger" depart="88.27" departLane="best" from="579984696" to="-275370764#24"/>
    <trip id="veh143" type="veh_passenger" depart="88.89" departLane="best" from="275370757#0" to="586490825#3"/>
    <trip id="veh144" type="veh_passenger" depart="89.51" departLane="best" departSpeed="max" from="1002629729" to="11633712#6"/>
    <trip id="veh145" type="veh_passenger" depart="90.13" departLane="best" from="-11634128#3" to="609107555#3"/>
    <trip id="veh146" type="veh_passenger" depart="90.76" departLane="best" from="420625415#4" to="84629922#2"/>
    <trip id="veh147" type="veh_passenger" depart="91.38" departLane="best" departSpeed="max" from="276657008#0" to="586490825#3"/>
    <trip id="veh148" type="veh_passenger" depart="92.00" departLane="best" departSpeed="max" from="-11630170#1" to="275405030#4"/>
    <trip id="veh149" type="veh_passenger" depart="92.62" departLane="best" departSpeed="max" from="-60194075#2" to="646326801#3"/>
    <trip id="veh150" type="veh_passenger" depart="93.24" departLane="best" from="276657004#1" to="580733704#0"/>
    <trip id="veh151" type="veh_passenger" depart="93.86" departLane="best" departSpeed="max" from="276657008#0" to="-420625410#1"/>
    <trip id="veh152" type="veh_passenger" depart="94.49" departLane="best" departSpeed="max" from="275405027#0" to="-11633106#0"/>
    <trip id="veh153" type="veh_passenger" depart="95.11" departLane="best" from="420987897#4" to="-579670573#6"/>
    <trip id="veh154" type="veh_passenger" depart="95.73" departLane="best" from="-276657007#3" to="420904895"/>
    <trip id="veh155" type="veh_passenger" depart="96.35" departLane="best" departSpeed="max" from="11630742#0" to="-579670574#2"/>
    <trip id="veh156" type="veh_passenger" depart="96.97" departLane="best" from="275405030#0" to="-276788582#0"/>
    <trip id="veh157" type="veh_passenger" depart="97.59" departLane="best" departSpeed="max" from="-11630170#1" to="-27522436#0"/>
    <trip id="veh158" type="veh_passenger" depart="98.22" departLane="best" from="-584850258#7" to="-580733704#1"/>
    <trip id="veh160" type="veh_passenger" depart="99.46" departLane="best" from="11633706" to="1032552748#3-AddedOffRampEdge"/>
    <trip id="veh161" type="veh_passenger" depart="100.08" departLane="best" departSpeed="max" from="84630131#0" to="11632088#1"/>
    <trip id="veh162" type="veh_passenger" depart="100.70" departLane="best" from="60356188#12" to="-11633511#0"/>
    <trip id="veh163" type="veh_passenger" depart="101.32" departLane="best" from="-798236100#1" to="-273386165#20"/>
    <trip id="veh164" type="veh_passenger" depart="101.94" departLane="best" from="708202342#0" to="420334383#2"/>
    <trip id="veh165" type="veh_passenger" depart="102.57" departLane="best" departSpeed="max" from="-11633027#2" to="-11630411#4"/>
    <trip id="veh166" type="veh_passenger" depart="103.19" departLane="best" departSpeed="max" from="273385370" to="584850201#0"/>
    <trip id="veh167" type="veh_passenger" depart="103.81" departLane="best" departSpeed="max" from="11633106#0" to="11631863#6"/>
    <trip id="veh168" type="veh_passenger" depart="104.43" departLane="best" departSpeed="max" from="-827819512" to="11633000#5"/>
    <trip id="veh169" type="veh_passenger" depart="105.05" departLane="best" departSpeed="max" from="-40698211#2" to="-27522549#11"/>
    <trip id="veh170" type="veh_passenger" depart="105.67" departLane="best" from="-1008842399#5" to="60428361#14"/>
    <trip id="veh171" type="veh_passenger" depart="106.30" departLane="best" from="11632012#1" to="275359466#0"/>
    <trip id="veh172" type="veh_passenger" depart="106.92" departLane="best" from="273386165#42" to="26831855#0-AddedOffRampEdge"/>
    <trip id="veh173" type="veh_passenger" depart="107.54" departLane="best" from="-653658852#7" to="-11632230#0"/>
    <trip id="veh174" type="veh_passenger" depart="108.16" departLane="best" departSpeed="max" from="11634151#0" to="-60356187#0"/>
    <trip id="veh175" type="veh_passenger" depart="108.78" departLane="best" from="579984698#2" to="571963300#1"/>
    <trip id="veh176" type="veh_passenger" depart="109.40" departLane="best" departSpeed="max" from="26993249" to="55124465#0"/>
    <trip id="veh177" type="veh_passenger" depart="110.03" departLane="best" from="579670574#1" to="1039249222#0"/>
    <trip id="veh178" type="veh_passenger" depart="110.65" departLane="best" from="-84635215#8" to="-536922030#28"/>
    <trip id="veh179" type="veh_passenger" depart="111.27" departLane="best" from="11633511#6" to="-1153032272#0"/>
    <trip id="veh180" type="veh_passenger" depart="111.89" departLane="best" from="60356188#7" to="26831855#1"/>
    <trip id="veh181" type="veh_passenger" depart="112.51" departLane="best" from="582438584#0" to="11633598#1"/>
    <trip id="veh182" type="veh_passenger" depart="113.13" departLane="best" departSpeed="max" from="-571956670" to="11632332#3"/>
    <trip id="veh183" type="veh_passenger" depart="113.76" departLane="best" from="-1008842399#0" to="-420903840"/>
    <trip id="veh184" type="veh_passenger" depart="114.38" departLane="best" from="1051288470" to="11633027#2"/>
    <trip id="veh185" type="veh_passenger" depart="115.00" departLane="best" from="11633928#1" to="11630994#13"/>
    <trip id="veh186" type="veh_passenger" depart="115.62" departLane="best" from="11630260#2" to="-275405028#4"/>
    <trip id="veh187" type="veh_passenger" depart="116.24" departLane="best" from="11630821#1" to="60195270"/>
    <trip id="veh188" type="veh_passenger" depart="116.86" departLane="best" from="275405030#2" to="-256661308#3"/>
    <trip id="veh189" type="veh_passenger" depart="117.49" departLane="best" departSpeed="max" from="-11632037#1" to="11631922#1"/>
    <trip id="veh190" type="veh_passenger" depart="118.11" departLane="best" departSpeed="max" from="11633551#0" to="-60419791#2"/>
    <trip id="veh191" type="veh_passenger" depart="118.73" departLane="best" from="337409815#3" to="276657007#8"/>
    <trip id="veh192" type="veh_passenger" depart="119.35" departLane="best" departSpeed="max" from="1190295950" to="-276788582#0"/>
    <trip id="veh193" type="veh_passenger" depart="119.97" departLane="best" from="275370739#1" to="-11630709"/>
    <trip id="veh194" type="veh_passenger" depart="120.59" departLane="best" from="-395644379#4" to="11631220#8"/>
    <trip id="veh195" type="veh_passenger" depart="121.21" departLane="best" departSpeed="max" from="40698211#0" to="-11632230#0"/>
    <trip id="veh196" type="veh_passenger" depart="121.84" departLane="best" from="1015401200#5" to="11633745#6"/>
    <trip id="veh197" type="veh_passenger" depart="122.46" departLane="best" from="27522549#7" to="273386166#2"/>
    <trip id="veh198" type="veh_passenger" depart="123.08" departLane="best" from="11631165#6" to="395644379#1"/>
    <trip id="veh199" type="veh_passenger" depart="123.70" departLane="best" from="11633940#5" to="1008842399#7"/>
    <trip id="veh200" type="veh_passenger" depart="124.32" departLane="best" departSpeed="max" from="274891139" to="339831443#4"/>
    <trip id="veh201" type="veh_passenger" depart="124.94" departLane="best" from="273386165#18" to="798236101#10"/>
    <trip id="veh202" type="veh_passenger" depart="125.57" departLane="best" departSpeed="max" from="11631587#0" to="-11631502#0"/>
    <trip id="veh203" type="veh_passenger" depart="126.19" departLane="best" departSpeed="max" from="-40698197#4" to="571963300#1"/>
    <trip id="veh204" type="veh_passenger" depart="126.81" departLane="best" departSpeed="max" from="11630709" to="40698217#3"/>
    <trip id="veh205" type="veh_passenger" depart="127.43" departLane="best" departSpeed="max" from="11634217#0" to="961523252"/>
    <trip id="veh206" type="veh_passenger" depart="128.05" departLane="best" from="11633002#2" to="687218366"/>
    <trip id="veh207" type="veh_passenger" depart="128.67" departLane="best" from="40698201#2" to="11633561#6"/>
    <trip id="veh208" type="veh_passenger" depart="129.30" departLane="best" departSpeed="max" from="26993249" to="11631536#1"/>
    <trip id="veh209" type="veh_passenger" depart="129.92" departLane="best" from="-354422354#1" to="11632332#10"/>
    <trip id="veh210" type="veh_passenger" depart="130.54" departLane="best" from="-579670576#2" to="275407806#3"/>
    <trip id="veh211" type="veh_passenger" depart="131.16" departLane="best" from="-11630838#5" to="-40698211#0"/>
    <trip id="veh212" type="veh_passenger" depart="131.78" departLane="best" departSpeed="max" from="-40698197#4" to="11633881#3"/>
    <trip id="veh213" type="veh_passenger" depart="132.40" departLane="best" from="27522557#4" to="-11631955#16"/>
    <trip id="veh214" type="veh_passenger" depart="133.03" departLane="best" departSpeed="max" from="11633528#0" to="-420625415#0"/>
    <trip id="veh215" type="veh_passenger" depart="133.65" departLane="best" from="-11631955#18" to="-420903840"/>
    <trip id="veh216" type="veh_passenger" depart="134.27" departLane="best" from="420625412#1" to="584850258#4"/>
    <trip id="veh217" type="veh_passenger" depart="134.89" departLane="best" from="11632039#7" to="-11634128#3"/>
    <trip id="veh218" type="veh_passenger" depart="135.51" departLane="best" from="-337409821#0" to="273386165#42"/>
    <trip id="veh219" type="veh_passenger" depart="136.13" departLane="best" from="-256661308#7" to="11632037#0"/>
    <trip id="veh220" type="veh_passenger" depart="136.76" departLane="best" from="1026428564" to="-275370744#1"/>
    <trip id="veh221" type="veh_passenger" depart="137.38" departLane="best" from="1026428565#5" to="60356160#2"/>
    <trip id="veh222" type="veh_passenger" depart="138.00" departLane="best" from="11632724#1" to="273386166#2"/>
    <trip id="veh223" type="veh_passenger" depart="138.62" departLane="best" from="420334380#9" to="337409815#5"/>
    <trip id="veh224" type="veh_passenger" depart="139.24" departLane="best" from="798236101#13" to="1015371346#1"/>
    <trip id="veh225" type="veh_passenger" depart="139.86" departLane="best" from="60428361#10" to="276798838#15"/>
    <trip id="veh226" type="veh_passenger" depart="140.48" departLane="best" from="40698215#1" to="716761680#1"/>
    <trip id="veh227" type="veh_passenger" depart="141.11" departLane="best" from="1026428565#3" to="276657006#7"/>
    <trip id="veh228" type="veh_passenger" depart="141.73" departLane="best" from="11632223#11" to="11633511#13"/>
    <trip id="veh229" type="veh_passenger" depart="142.35" departLane="best" from="-276657007#0" to="-276596184#1"/>
    <trip id="veh230" type="veh_passenger" depart="142.97" departLane="best" from="1090216123#2" to="-11630821#0"/>
    <trip id="veh231" type="veh_passenger" depart="143.59" departLane="best" from="60356160#21" to="27054638#4"/>
    <trip id="veh233" type="veh_passenger" depart="144.84" departLane="best" from="11630763#6" to="-11633693#1"/>
    <trip id="veh234" type="veh_passenger" depart="145.46" departLane="best" from="11633518#11" to="-11630709"/>
    <trip id="veh235" type="veh_passenger" depart="146.08" departLane="best" departSpeed="max" from="-843777078" to="11632713#2"/>
    <trip id="veh236" type="veh_passenger" depart="146.70" departLane="best" from="11630411#1" to="-11634052#4"/>
    <trip id="veh237" type="veh_passenger" depart="147.32" departLane="best" from="-11633721#2" to="11630951#3"/>