<?xml version="1.0" encoding="UTF-8"?>

<!-- generated on 2024-05-28 15:29:43.172962 by osmWebWizard.py v1_19_0+0000-baa66a0f364
<configuration>
    <net-file value="C:\Users\matan\Sumo\2024-05-28-15-29-28\osm.net.xml.gz"/>
    <output-trip-file value="C:\Users\matan\Sumo\2024-05-28-15-29-28\osm.passenger.trips.xml"/>
    <route-file value="C:\Users\matan\Sumo\2024-05-28-15-29-28\osm.passenger.rou.xml"/>
    <prefix value="veh"/>
    <trip-attributes value="departLane=&quot;best&quot;"/>
    <fringe-start-attributes value="departSpeed=&quot;max&quot;"/>
    <vehicle-class value="passenger"/>
    <lanes value="True"/>
    <fringe-factor value="80"/>
    <allow-fringe.min-length value="1000.0"/>
    <via-edge-types value="highway.motorway,highway.motorway_link,highway.trunk_link,highway.primary_link,highway.secondary_link,highway.tertiary_link"/>
    <min-distance value="300.0"/>
    <min-distance.fringe value="10.0"/>
    <remove-loops value="True"/>
    <validate value="True"/>
    <insertion-density value="50.0"/>
</configuration>
-->

<!-- generated on 2024-05-28 15:29:42 by Eclipse SUMO duarouter Version 1.19.0
<configuration xmlns:xsi="http://www.w3.org/2001/XMLSchema-instance" xsi:noNamespaceSchemaLocation="http://sumo.dlr.de/xsd/duarouterConfiguration.xsd">

    <input>
        <net-file value="C:\Users\matan\Sumo\2024-05-28-15-29-28\osm.net.xml.gz"/>
        <route-files value="C:\Users\matan\Sumo\2024-05-28-15-29-28\osm.passenger.trips.xml"/>
    </input>

    <output>
        <output-file value="C:\Users\matan\Sumo\2024-05-28-15-29-28\osm.passenger.trips.xml.tmp"/>
        <alternatives-output value="NUL"/>
        <write-trips value="true"/>
    </output>

    <processing>
        <remove-loops value="true"/>
    </processing>

    <time>
        <begin value="0.0"/>
        <end value="3600.0"/>
    </time>

    <report>
        <no-warnings value="true"/>
        <ignore-errors value="true"/>
        <no-step-log value="true"/>
    </report>

</configuration>
-->

<routes xmlns:xsi="http://www.w3.org/2001/XMLSchema-instance" xsi:noNamespaceSchemaLocation="http://sumo.dlr.de/xsd/routes_file.xsd">
    <vType id="veh_passenger" vClass="passenger"/>
    <trip id="veh1" type="veh_passenger" depart="0.72" departLane="best" departSpeed="max" from="27326071" to="1178815201#3"/>
    <trip id="veh7" type="veh_passenger" depart="5.02" departLane="best" from="1183631689" to="31963466"/>
    <trip id="veh8" type="veh_passenger" depart="5.73" departLane="best" departSpeed="max" from="544656918#0" to="-1178815214#1"/>
    <trip id="veh9" type="veh_passenger" depart="6.45" departLane="best" departSpeed="max" from="544656918#0" to="32447880"/>
    <trip id="veh10" type="veh_passenger" depart="7.17" departLane="best" departSpeed="max" from="27326071" to="10644958"/>
    <trip id="veh11" type="veh_passenger" depart="7.88" departLane="best" departSpeed="max" from="892447846#0" to="1182261159#0"/>
    <trip id="veh12" type="veh_passenger" depart="8.60" departLane="best" from="-43948240#4" to="-56683973#2"/>
    <trip id="veh14" type="veh_passenger" depart="10.03" departLane="best" departSpeed="max" from="544656918#0" to="32447880"/>
    <trip id="veh16" type="veh_passenger" depart="11.47" departLane="best" departSpeed="max" from="27326071" to="27326011"/>
    <trip id="veh17" type="veh_passenger" depart="12.18" departLane="best" departSpeed="max" from="544656918#0" to="31963466"/>
    <trip id="veh20" type="veh_passenger" depart="14.34" departLane="best" from="1183631740-AddedOnRampEdge" to="1182257663"/>
    <trip id="veh21" type="veh_passenger" depart="15.05" departLane="best" departSpeed="max" from="-152449157#1" to="1178815214#0"/>
    <trip id="veh23" type="veh_passenger" depart="16.49" departLane="best" departSpeed="max" from="335573260#0" to="1182261159#0"/>
    <trip id="veh24" type="veh_passenger" depart="17.20" departLane="best" departSpeed="max" from="27326071" to="1178815201#3"/>
    <trip id="veh25" type="veh_passenger" depart="17.92" departLane="best" departSpeed="max" from="27326071" to="334453115#4"/>
    <trip id="veh26" type="veh_passenger" depart="18.64" departLane="best" departSpeed="max" from="335573260#0" to="31963466"/>
    <trip id="veh27" type="veh_passenger" depart="19.35" departLane="best" departSpeed="max" from="1182257660" to="32447880"/>
    <trip id="veh28" type="veh_passenger" depart="20.07" departLane="best" departSpeed="max" from="1182257660" to="1182261159#0"/>
    <trip id="veh29" type="veh_passenger" depart="20.79" departLane="best" departSpeed="max" from="892447846#0" to="31963466"/>
    <trip id="veh30" type="veh_passenger" depart="21.50" departLane="best" departSpeed="max" from="28830220" to="32447880"/>
    <trip id="veh31" type="veh_passenger" depart="22.22" departLane="best" departSpeed="max" from="544656918#0" to="32447880"/>
    <trip id="veh33" type="veh_passenger" depart="23.65" departLane="best" departSpeed="max" from="27326071" to="1182257663"/>
    <trip id="veh34" type="veh_passenger" depart="24.37" departLane="best" from="1183631685#1" to="334453115#4"/>
    <trip id="veh36" type="veh_passenger" depart="25.80" departLane="best" departSpeed="max" from="335573260#0" to="1182261159#0"/>
    <trip id="veh38" type="veh_passenger" depart="27.24" departLane="best" departSpeed="max" from="27326071" to="1182257663"/>
    <trip id="veh40" type="veh_passenger" depart="28.67" departLane="best" from="334523032#3-AddedOnRampEdge" to="334453115#4"/>
    <trip id="veh41" type="veh_passenger" depart="29.39" departLane="best" departSpeed="max" from="27326071" to="1178815201#3"/>
    <trip id="veh44" type="veh_passenger" depart="31.54" departLane="best" from="1178815214#0" to="31963466"/>
    <trip id="veh45" type="veh_passenger" depart="32.25" departLane="best" departSpeed="max" from="544656918#0" to="1183631688#1"/>
    <trip id="veh46" type="veh_passenger" depart="32.97" departLane="best" departSpeed="max" from="-152449157#1" to="1182261159#0"/>
    <trip id="veh48" type="veh_passenger" depart="34.40" departLane="best" departSpeed="max" from="892447846#0" to="334453115#4"/>
    <trip id="veh49" type="veh_passenger" depart="35.12" departLane="best" departSpeed="max" from="-1178815201#3" to="32447880"/>
    <trip id="veh51" type="veh_passenger" depart="36.55" departLane="best" departSpeed="max" from="27326071" to="31963466"/>
    <trip id="veh52" type="veh_passenger" depart="37.27" departLane="best" departSpeed="max" from="1182257660" to="1183631743#0"/>
    <trip id="veh55" type="veh_passenger" depart="39.42" departLane="best" from="685477371#0" to="334453115#4"/>
    <trip id="veh56" type="veh_passenger" depart="40.14" departLane="best" departSpeed="max" from="27326071" to="31963466"/>
    <trip id="veh60" type="veh_passenger" depart="43.01" departLane="best" from="-1097327206#1" to="1182261154"/>
    <trip id="veh61" type="veh_passenger" depart="43.72" departLane="best" departSpeed="max" from="-1178815201#3" to="334453115#4"/>
    <trip id="veh62" type="veh_passenger" depart="44.44" departLane="best" departSpeed="max" from="56683973#0" to="334453115#4"/>
    <trip id="veh63" type="veh_passenger" depart="45.16" departLane="best" departSpeed="max" from="27326071" to="-56683973#0"/>
    <trip id="veh65" type="veh_passenger" depart="46.59" departLane="best" departSpeed="max" from="-152449157#1" to="152449160#1"/>
    <trip id="veh66" type="veh_passenger" depart="47.31" departLane="best" departSpeed="max" from="-152449157#1" to="32447880"/>
    <trip id="veh69" type="veh_passenger" depart="49.46" departLane="best" departSpeed="max" from="27326071" to="334453115#4"/>
    <trip id="veh70" type="veh_passenger" depart="50.17" departLane="best" departSpeed="max" from="28830198" to="1178815201#3"/>
    <trip id="veh71" type="veh_passenger" depart="50.89" departLane="best" departSpeed="max" from="28830220" to="32447880"/>
    <trip id="veh73" type="veh_passenger" depart="52.32" departLane="best" departSpeed="max" from="892447846#0" to="31963466"/>
    <trip id="veh75" type="veh_passenger" depart="53.76" departLane="best" departSpeed="max" from="1182257660" to="1178815201#3"/>
    <trip id="veh76" type="veh_passenger" depart="54.47" departLane="best" departSpeed="max" from="27326071" to="31963466"/>
    <trip id="veh77" type="veh_passenger" depart="55.19" departLane="best" from="1183631689" to="1178815201#3"/>
    <trip id="veh78" type="veh_passenger" depart="55.91" departLane="best" departSpeed="max" from="-152449157#1" to="31963466"/>
    <trip id="veh79" type="veh_passenger" depart="56.62" departLane="best" from="1183631689" to="334453115#4"/>
    <trip id="veh80" type="veh_passenger" depart="57.34" departLane="best" from="1183631746" to="32447880"/>
    <trip id="veh82" type="veh_passenger" depart="58.77" departLane="best" departSpeed="max" from="892447846#0" to="31963466"/>
    <trip id="veh83" type="veh_passenger" depart="59.49" departLane="best" departSpeed="max" from="28830198" to="32447880"/>
    <trip id="veh84" type="veh_passenger" depart="60.21" departLane="best" departSpeed="max" from="544656918#0" to="-1178815201#0"/>
    <trip id="veh86" type="veh_passenger" depart="61.64" departLane="best" departSpeed="max" from="28830198" to="152449157#1"/>
    <trip id="veh88" type="veh_passenger" depart="63.07" departLane="best" departSpeed="max" from="892447846#0" to="-608386214#0"/>
    <trip id="veh89" type="veh_passenger" depart="63.79" departLane="best" departSpeed="max" from="27326071" to="1182261159#0"/>
    <trip id="veh91" type="veh_passenger" depart="65.23" departLane="best" departSpeed="max" from="1182257660" to="152449157#1"/>
    <trip id="veh92" type="veh_passenger" depart="65.94" departLane="best" departSpeed="max" from="28830198" to="1182257663"/>
    <trip id="veh93" type="veh_passenger" depart="66.66" departLane="best" departSpeed="max" from="27326071" to="334453115#4"/>
    <trip id="veh94" type="veh_passenger" depart="67.38" departLane="best" departSpeed="max" from="28830198" to="334453115#4"/>
    <trip id="veh96" type="veh_passenger" depart="68.81" departLane="best" from="892447846#1" to="334453115#4"/>
    <trip id="veh97" type="veh_passenger" depart="69.53" departLane="best" departSpeed="max" from="892447846#0" to="334453115#4"/>
    <trip id="veh99" type="veh_passenger" depart="70.96" departLane="best" departSpeed="max" from="28830198" to="1178815201#3"/>
    <trip id="veh100" type="veh_passenger" depart="71.68" departLane="best" departSpeed="max" from="27326071" to="-56683973#0"/>
    <trip id="veh101" type="veh_passenger" depart="72.39" departLane="best" departSpeed="max" from="27326071" to="685477360#1-AddedOnRampEdge"/>
    <trip id="veh102" type="veh_passenger" depart="73.11" departLane="best" departSpeed="max" from="28830198" to="1183631688#1"/>
    <trip id="veh104" type="veh_passenger" depart="74.54" departLane="best" departSpeed="max" from="28830220" to="32447880"/>
    <trip id="veh105" type="veh_passenger" depart="75.26" departLane="best" departSpeed="max" from="892447846#0" to="31963466"/>
    <trip id="veh106" type="veh_passenger" depart="75.98" departLane="best" departSpeed="max" from="28830220" to="32447880"/>
    <trip id="veh107" type="veh_passenger" depart="76.69" departLane="best" departSpeed="max" from="-152449157#1" to="31963466"/>
    <trip id="veh111" type="veh_passenger" depart="79.56" departLane="best" departSpeed="max" from="335573260#0" to="32447880"/>
    <trip id="veh113" type="veh_passenger" depart="80.99" departLane="best" from="-61391236#0" to="1182257663"/>
    <trip id="veh114" type="veh_passenger" depart="81.71" departLane="best" departSpeed="max" from="335573260#0" to="31963466"/>
    <trip id="veh116" type="veh_passenger" depart="83.14" departLane="best" from="1183631681" to="32447880"/>
    <trip id="veh117" type="veh_passenger" depart="83.86" departLane="best" from="1183631747" to="1182261159#0"/>
    <trip id="veh118" type="veh_passenger" depart="84.58" departLane="best" departSpeed="max" from="335573260#0" to="1182257663"/>
    <trip id="veh120" type="veh_passenger" depart="86.01" departLane="best" departSpeed="max" from="-152449157#1" to="1178815201#3"/>
    <trip id="veh121" type="veh_passenger" depart="86.73" departLane="best" departSpeed="max" from="27326071" to="334453115#4"/>
    <trip id="veh122" type="veh_passenger" depart="87.44" departLane="best" departSpeed="max" from="56683973#0" to="334453115#4"/>
    <trip id="veh123" type="veh_passenger" depart="88.16" departLane="best" departSpeed="max" from="27326071" to="10644958"/>
    <trip id="veh124" type="veh_passenger" depart="88.88" departLane="best" departSpeed="max" from="544656918#0" to="32447880"/>
    <trip id="veh125" type="veh_passenger" depart="89.60" departLane="best" departSpeed="max" from="335573260#0" to="685477361"/>
    <trip id="veh126" type="veh_passenger" depart="90.31" departLane="best" departSpeed="max" from="335573260#0" to="-295885913#0"/>
    <trip id="veh127" type="veh_passenger" depart="91.03" departLane="best" departSpeed="max" from="544656918#0" to="1182257663"/>
    <trip id="veh130" type="veh_passenger" depart="93.18" departLane="best" departSpeed="max" from="27326071" to="31963466"/>
    <trip id="veh131" type="veh_passenger" depart="93.90" departLane="best" from="335573260#6" to="1178815201#3"/>
    <trip id="veh132" type="veh_passenger" depart="94.61" departLane="best" departSpeed="max" from="335573260#0" to="1182257663"/>
    <trip id="veh134" type="veh_passenger" depart="96.05" departLane="best" departSpeed="max" from="28830198" to="1182257663"/>
    <trip id="veh135" type="veh_passenger" depart="96.76" departLane="best" from="-1099488037" to="32447880"/>
    <trip id="veh136" type="veh_passenger" depart="97.48" departLane="best" departSpeed="max" from="335573260#0" to="1182257663"/>
    <trip id="veh138" type="veh_passenger" depart="98.91" departLane="best" departSpeed="max" from="28830198" to="390477962#1"/>
    <trip id="veh139" type="veh_passenger" depart="99.63" departLane="best" departSpeed="max" from="-152449157#1" to="334453115#4"/>
    <trip id="veh141" type="veh_passenger" depart="101.06" departLane="best" departSpeed="max" from="544656918#0" to="31963466"/>
    <trip id="veh143" type="veh_passenger" depart="102.50" departLane="best" departSpeed="max" from="27326071" to="334453115#4"/>
    <trip id="veh144" type="veh_passenger" depart="103.21" departLane="best" departSpeed="max" from="544656918#0" to="334453115#4"/>
    <trip id="veh145" type="veh_passenger" depart="103.93" departLane="best" from="684118965#2-AddedOffRampEdge" to="1178815201#3"/>
    <trip id="veh147" type="veh_passenger" depart="105.36" departLane="best" departSpeed="max" from="544656918#0" to="334453115#4"/>
    <trip id="veh148" type="veh_passenger" depart="106.08" departLane="best" departSpeed="max" from="1182257660" to="334453115#4"/>
    <trip id="veh150" type="veh_passenger" depart="107.51" departLane="best" departSpeed="max" from="544656918#0" to="334453115#4"/>
    <trip id="veh151" type="veh_passenger" depart="108.23" departLane="best" departSpeed="max" from="-1178815201#3" to="32447880"/>
    <trip id="veh152" type="veh_passenger" depart="108.95" departLane="best" departSpeed="max" from="27326071" to="334453115#4"/>
    <trip id="veh153" type="veh_passenger" depart="109.66" departLane="best" departSpeed="max" from="544656918#0" to="334453115#4"/>
    <trip id="veh154" type="veh_passenger" depart="110.38" departLane="best" departSpeed="max" from="544656918#0" to="1182257663"/>
    <trip id="veh156" type="veh_passenger" depart="111.81" departLane="best" departSpeed="max" from="56683973#0" to="334453115#4"/>
    <trip id="veh157" type="veh_passenger" depart="112.53" departLane="best" from="1183631692" to="334453115#2"/>
    <trip id="veh158" type="veh_passenger" depart="113.25" departLane="best" departSpeed="max" from="28830198" to="1182257663"/>
    <trip id="veh159" type="veh_passenger" depart="113.96" departLane="best" departSpeed="max" from="544656918#0" to="1178815201#3"/>
    <trip id="veh160" type="veh_passenger" depart="114.68" departLane="best" departSpeed="max" from="27326071" to="334453115#4"/>
    <trip id="veh161" type="veh_passenger" depart="115.40" departLane="best" departSpeed="max" from="892447846#0" to="1182257663"/>
    <trip id="veh162" type="veh_passenger" depart="116.12" departLane="best" departSpeed="max" from="335573260#0" to="1182261159#0"/>
    <trip id="veh166" type="veh_passenger" depart="118.98" departLane="best" departSpeed="max" from="892447846#0" to="1182257663"/>
    <trip id="veh167" type="veh_passenger" depart="119.70" departLane="best" from="1178815201#0" to="1183631743#0"/>
    <trip id="veh170" type="veh_passenger" depart="121.85" departLane="best" departSpeed="max" from="27326071" to="31963466"/>
    <trip id="veh172" type="veh_passenger" depart="123.28" departLane="best" departSpeed="max" from="28830220" to="32447880"/>
    <trip id="veh174" type="veh_passenger" depart="124.72" departLane="best" departSpeed="max" from="27326071" to="-56683973#0"/>
    <trip id="veh175" type="veh_passenger" depart="125.43" departLane="best" departSpeed="max" from="335573260#0" to="1182261159#0"/>
    <trip id="veh176" type="veh_passenger" depart="126.15" departLane="best" departSpeed="max" from="27326071" to="334453115#4"/>
    <trip id="veh177" type="veh_passenger" depart="126.87" departLane="best" from="-43948240#1" to="1182257663"/>
    <trip id="veh178" type="veh_passenger" depart="127.58" departLane="best" departSpeed="max" from="27326071" to="1183631682#0"/>
    <trip id="veh179" type="veh_passenger" depart="128.30" departLane="best" departSpeed="max" from="27326071" to="1182257663"/>
    <trip id="veh180" type="veh_passenger" depart="129.02" departLane="best" departSpeed="max" from="1182257660" to="1183631685#1"/>
    <trip id="veh181" type="veh_passenger" depart="129.73" departLane="best" departSpeed="max" from="892447846#0" to="32447880"/>
    <trip id="veh182" type="veh_passenger" depart="130.45" departLane="best" from="685477360#1" to="31963466"/>
    <trip id="veh183" type="veh_passenger" depart="131.17" departLane="best" departSpeed="max" from="27326071" to="27326011"/>
    <trip id="veh184" type="veh_passenger" depart="131.88" departLane="best" from="-1097327206#0" to="1182257663"/>
    <trip id="veh185" type="veh_passenger" depart="132.60" departLane="best" departSpeed="max" from="335573260#0" to="152449157#1"/>
    <trip id="veh186" type="veh_passenger" depart="133.32" departLane="best" departSpeed="max" from="28830198" to="1178815201#3"/>
    <trip id="veh187" type="veh_passenger" depart="134.03" departLane="best" departSpeed="max" from="28830198" to="334453115#4"/>
    <trip id="veh190" type="veh_passenger" depart="136.18" departLane="best" departSpeed="max" from="335573260#0" to="1182261159#0"/>
    <trip id="veh191" type="veh_passenger" depart="136.90" departLane="best" departSpeed="max" from="544656918#0" to="32447880"/>
    <trip id="veh192" type="veh_passenger" depart="137.62" departLane="best" departSpeed="max" from="335573260#0" to="1178815201#3"/>
    <trip id="veh194" type="veh_passenger" depart="139.05" departLane="best" departSpeed="max" from="27326071" to="152449157#1"/>
    <trip id="veh195" type="veh_passenger" depart="139.77" departLane="best" from="685477360#1" to="32447880"/>
    <trip id="veh197" type="veh_passenger" depart="141.20" departLane="best" departSpeed="max" from="335573260#0" to="1178815201#2"/>
    <trip id="veh202" type="veh_passenger" depart="144.79" departLane="best" departSpeed="max" from="27326071" to="334453115#4"/>
    <trip id="veh203" type="veh_passenger" depart="145.50" departLane="best" departSpeed="max" from="28830198" to="32447880"/>
    <trip id="veh204" type="veh_passenger" depart="146.22" departLane="best" departSpeed="max" from="335573260#0" to="685477361"/>
    <trip id="veh205" type="veh_passenger" depart="146.94" departLane="best" departSpeed="max" from="335573260#0" to="334523032#3-AddedOnRampEdge"/>
    <trip id="veh206" type="veh_passenger" depart="147.65" departLane="best" from="-50437302" to="31963466"/>
    <trip id="veh209" type="veh_passenger" depart="149.80" departLane="best" from="684118965#2" to="32447880"/>
    <trip id="veh210" type="veh_passenger" depart="150.52" departLane="best" departSpeed="max" from="28830198" to="1182257663"/>
    <trip id="veh211" type="veh_passenger" depart="151.24" departLane="best" departSpeed="max" from="27326071" to="31963466"/>
    <trip id="veh213" type="veh_passenger" depart="152.67" departLane="best" departSpeed="max" from="335573260#0" to="1182257663"/>
    <trip id="veh214" type="veh_passenger" depart="153.39" departLane="best" departSpeed="max" from="-152449157#1" to="1182257663"/>
    <trip id="veh215" type="veh_passenger" depart="154.10" departLane="best" departSpeed="max" from="27326071" to="1182261150#1-AddedOnRampEdge"/>
    <trip id="veh216" type="veh_passenger" depart="154.82" departLane="best" from="1183631743#0" to="32447880"/>
    <trip id="veh217" type="veh_passenger" depart="155.54" departLane="best" departSpeed="max" from="335573260#0" to="-56683973#0"/>
    <trip id="veh219" type="veh_passenger" depart="156.97" departLane="best" departSpeed="max" from="28830198" to="1178815201#3"/>
    <trip id="veh220" type="veh_passenger" depart="157.69" departLane="best" departSpeed="max" from="28830198" to="334453115#4"/>
    <trip id="veh221" type="veh_passenger" depart="158.40" departLane="best" from="334523032#3-AddedOnRampEdge" to="32447880"/>
    <trip id="veh223" type="veh_passenger" depart="159.84" departLane="best" departSpeed="max" from="27326071" to="-1178815214#0"/>
    <trip id="veh225" type="veh_passenger" depart="161.27" departLane="best" departSpeed="max" from="28830198" to="32447880"/>
    <trip id="veh227" type="veh_passenger" depart="162.70" departLane="best" from="1183631689" to="1178815201#3"/>
    <trip id="veh229" type="veh_passenger" depart="164.14" departLane="best" departSpeed="max" from="27326071" to="10644958"/>
    <trip id="veh232" type="veh_passenger" depart="166.29" departLane="best" departSpeed="max" from="27326071" to="27326011"/>
    <trip id="veh233" type="veh_passenger" depart="167.01" departLane="best" departSpeed="max" from="-1178815201#3" to="31963466"/>
    <trip id="veh234" type="veh_passenger" depart="167.72" departLane="best" departSpeed="max" from="1182257660" to="152449157#1"/>
    <trip id="veh235" type="veh_passenger" depart="168.44" departLane="best" departSpeed="max" from="-152449157#1" to="1182261159#0"/>
    <trip id="veh236" type="veh_passenger" depart="169.16" departLane="best" from="1183631684" to="1182261159#0"/>
    <trip id="veh239" type="veh_passenger" depart="171.31" departLane="best" departSpeed="max" from="27326071" to="-56683973#0"/>
    <trip id="veh241" type="veh_passenger" depart="172.74" departLane="best" from="892447846#1" to="1182261159#0"/>
    <trip id="veh242" type="veh_passenger" depart="173.46" departLane="best" departSpeed="max" from="335573260#0" to="32447880"/>
    <trip id="veh243" type="veh_passenger" depart="174.17" departLane="best" departSpeed="max" from="335573260#0" to="32447880"/>
    <trip id="veh244" type="veh_passenger" depart="174.89" departLane="best" departSpeed="max" from="892447846#0" to="1178815201#3"/>
    <trip id="veh246" type="veh_passenger" depart="176.32" departLane="best" departSpeed="max" from="1182257660" to="32447880"/>
    <trip id="veh248" type="veh_passenger" depart="177.76" departLane="best" departSpeed="max" from="335573260#0" to="32447880"/>
    <trip id="veh249" type="veh_passenger" depart="178.47" departLane="best" departSpeed="max" from="1182257660" to="31963466"/>
    <trip id="veh251" type="veh_passenger" depart="179.91" departLane="best" departSpeed="max" from="544656918#0" to="43948240#2"/>
    <trip id="veh253" type="veh_passenger" depart="181.34" departLane="best" departSpeed="max" from="892447846#0" to="1182261159#0"/>
    <trip id="veh254" type="veh_passenger" depart="182.06" departLane="best" from="335573260#5-AddedOffRampEdge" to="-56683973#0"/>
    <trip id="veh255" type="veh_passenger" depart="182.77" departLane="best" departSpeed="max" from="335573260#0" to="31963466"/>
    <trip id="veh258" type="veh_passenger" depart="184.92" departLane="best" departSpeed="max" from="1182257660" to="685477360#1"/>
    <trip id="veh259" type="veh_passenger" depart="185.64" departLane="best" departSpeed="max" from="544656918#0" to="1182261159#0"/>
    <trip id="veh260" type="veh_passenger" depart="186.36" departLane="best" departSpeed="max" from="28830198" to="1182261159#0"/>
    <trip id="veh262" type="veh_passenger" depart="187.79" departLane="best" departSpeed="max" from="56683973#0" to="334453115#4"/>
    <trip id="veh264" type="veh_passenger" depart="189.22" departLane="best" departSpeed="max" from="335573260#0" to="685477364"/>
    <trip id="veh267" type="veh_passenger" depart="191.38" departLane="best" departSpeed="max" from="28830198" to="32447880"/>
    <trip id="veh268" type="veh_passenger" depart="192.09" departLane="best" departSpeed="max" from="27326071" to="334453115#4"/>
    <trip id="veh269" type="veh_passenger" depart="192.81" departLane="best" departSpeed="max" from="544656918#0" to="-56683973#0"/>
    <trip id="veh273" type="veh_passenger" depart="195.68" departLane="best" from="1183631685#0" to="32447880"/>
    <trip id="veh274" type="veh_passenger" depart="196.39" departLane="best" departSpeed="max" from="27326071" to="334453115#4"/>
    <trip id="veh275" type="veh_passenger" depart="197.11" departLane="best" departSpeed="max" from="335573260#0" to="1182257663"/>
    <trip id="veh276" type="veh_passenger" depart="197.83" departLane="best" departSpeed="max" from="-1178815201#3" to="334523032#3"/>
    <trip id="veh277" type="veh_passenger" depart="198.54" departLane="best" departSpeed="max" from="-152449157#1" to="32447880"/>
    <trip id="veh278" type="veh_passenger" depart="199.26" departLane="best" departSpeed="max" from="28830220" to="32447880"/>
    <trip id="veh279" type="veh_passenger" depart="199.98" departLane="best" departSpeed="max" from="335573260#0" to="31963466"/>
    <trip id="veh280" type="veh_passenger" depart="200.69" departLane="best" departSpeed="max" from="28830220" to="32447880"/>
    <trip id="veh281" type="veh_passenger" depart="201.41" departLane="best" from="43948240#4" to="1178815201#3"/>
    <trip id="veh282" type="veh_passenger" depart="202.13" departLane="best" departSpeed="max" from="335573260#0" to="1182257663"/>
    <trip id="veh283" type="veh_passenger" depart="202.84" departLane="best" from="334453117#0" to="152449157#1"/>
    <trip id="veh286" type="veh_passenger" depart="204.99" departLane="best" departSpeed="max" from="335573260#0" to="1182257663"/>
    <trip id="veh287" type="veh_passenger" depart="205.71" departLane="best" departSpeed="max" from="27326071" to="10644958"/>
    <trip id="veh289" type="veh_passenger" depart="207.14" departLane="best" departSpeed="max" from="28830220" to="32447880"/>
    <trip id="veh290" type="veh_passenger" depart="207.86" departLane="best" departSpeed="max" from="1182257660" to="1178815201#3"/>
    <trip id="veh291" type="veh_passenger" depart="208.58" departLane="best" departSpeed="max" from="28830198" to="32447880"/>
    <trip id="veh293" type="veh_passenger" depart="210.01" departLane="best" departSpeed="max" from="27326071" to="-79824403#0"/>
    <trip id="veh294" type="veh_passenger" depart="210.73" departLane="best" from="1182261150#0" to="1178815201#3"/>
    <trip id="veh301" type="veh_passenger" depart="215.74" departLane="best" departSpeed="max" from="28830198" to="1183631746"/>
    <trip id="veh303" type="veh_passenger" depart="217.18" departLane="best" departSpeed="max" from="892447846#0" to="152449157#1"/>
    <trip id="veh304" type="veh_passenger" depart="217.90" departLane="best" departSpeed="max" from="544656918#0" to="1182261159#0"/>
    <trip id="veh305" type="veh_passenger" depart="218.61" departLane="best" departSpeed="max" from="-152449157#1" to="31963466"/>
    <trip id="veh309" type="veh_passenger" depart="221.48" departLane="best" departSpeed="max" from="544656918#0" to="31963466"/>
    <trip id="veh310" type="veh_passenger" depart="222.20" departLane="best" departSpeed="max" from="544656918#0" to="1178815201#3"/>
    <trip id="veh312" type="veh_passenger" depart="223.63" departLane="best" departSpeed="max" from="28830198" to="334453115#4"/>
    <trip id="veh313" type="veh_passenger" depart="224.35" departLane="best" departSpeed="max" from="892447846#0" to="1182257663"/>
    <trip id="veh314" type="veh_passenger" depart="225.06" departLane="best" departSpeed="max" from="335573260#0" to="31963466"/>
    <trip id="veh316" type="veh_passenger" depart="226.50" departLane="best" from="1183631682#1-AddedOnRampEdge" to="1178815201#3"/>
    <trip id="veh318" type="veh_passenger" depart="227.93" departLane="best" departSpeed="max" from="1182257660" to="-56683973#0"/>
    <trip id="veh320" type="veh_passenger" depart="229.36" departLane="best" departSpeed="max" from="335573260#0" to="1182257663"/>
    <trip id="veh321" type="veh_passenger" depart="230.08" departLane="best" from="1183631743#0" to="32447880"/>
    <trip id="veh322" type="veh_passenger" depart="230.80" departLane="best" departSpeed="max" from="335573260#0" to="152449157#1"/>
    <trip id="veh323" type="veh_passenger" depart="231.51" departLane="best" departSpeed="max" from="544656918#0" to="31963466"/>
    <trip id="veh325" type="veh_passenger" depart="232.95" departLane="best" departSpeed="max" from="544656918#0" to="-56683973#0"/>
    <trip id="veh327" type="veh_passenger" depart="234.38" departLane="best" departSpeed="max" from="27326071" to="10644958"/>
    <trip id="veh328" type="veh_passenger" depart="235.10" departLane="best" departSpeed="max" from="335573260#0" to="32447880"/>