<?xml version="1.0" encoding="UTF-8"?>

<!-- generated on 2024-02-27 18:54:07 by Eclipse SUMO netedit Version 1.19.0
-->

<routes xmlns:xsi="http://www.w3.org/2001/XMLSchema-instance" xsi:noNamespaceSchemaLocation="http://sumo.dlr.de/xsd/routes_file.xsd">
    <!-- Vehicles, persons and containers (sorted by depart) -->
    <flow id="f_0" begin="0.00" fromJunction="J2" toJunction="J1" end="3600.00" vehsPerHour="1800"/>
    <flow id="f_1" begin="0.00" fromJunction="J1" toJunction="J2" end="3600.00" vehsPerHour="1800"/>
</routes>
